Input/IEEE_14_39/IEEE_14_39_included_protection_devices.raw
@!IC, SBASE,REV,XFRRAT,NXFRAT,BASFRQ
0,   100.00, 34,     0,     0, 60.00     / PSS(R)E-34.6    FRI, SEP 25 2026  17:24
INTEGRATED_39_14_BUS_SYST_VIA_AC_L(4)-01 RMS SIMULATION WITH
POWERFACTORY 2023 SP2  DATE: 2/14/2024, TIME: 1:24:43 PM
GENERAL, THRSHZ=0.0001, PQBRAK=0.7, BLOWUP=5.0
GAUSS, ITMX=100, ACCP=1.6, ACCQ=1.6, ACCM=1.0, TOL=0.0001
NEWTON, ITMXN=20, ACCN=1.0, TOLN=0.1, VCTOLQ=0.1, VCTOLV=0.00001, DVLIM=0.99, NDVFCT=0.99
ADJUST, ADJTHR=0.005, ACCTAP=1.0, TAPLIM=0.05, SWVBND=100.0, MXTPSS=99, MXSWIM=10
TYSL, ITMXTY=20, ACCTY=1.0, TOLTY=0.00001
SOLVER, FNSL, ACTAPS=0, AREAIN=0, PHSHFT=0, DCTAPS=1, SWSHNT=1, FLATST=0, VARLIM=99, NONDIV=0
RATING, 1, "RATE1 ", "RATING SET 1                    "
RATING, 2, "RATE2 ", "RATING SET 2                    "
RATING, 3, "RATE3 ", "RATING SET 3                    "
RATING, 4, "RATE4 ", "RATING SET 4                    "
RATING, 5, "RATE5 ", "RATING SET 5                    "
RATING, 6, "RATE6 ", "RATING SET 6                    "
RATING, 7, "RATE7 ", "RATING SET 7                    "
RATING, 8, "RATE8 ", "RATING SET 8                    "
RATING, 9, "RATE9 ", "RATING SET 9                    "
RATING,10, "RATE10", "RATING SET 10                   "
RATING,11, "RATE11", "RATING SET 11                   "
RATING,12, "RATE12", "RATING SET 12                   "
0 / END OF SYSTEM-WIDE DATA, BEGIN BUS DATA
@!   I,'NAME        ', BASKV, IDE,AREA,ZONE,OWNER, VM,        VA,    NVHI,   NVLO,   EVHI,   EVLO
     1,'BUS_01_39   ', 345.0000,1,   2,   1,   1,1.03680,  -8.1473,1.05000,0.00000,1.05000,0.00000
     2,'BUS_02_39   ', 345.0000,1,   2,   1,   1,1.05005,  -1.7362,1.05000,0.00000,1.05000,0.00000
     3,'BUS_03_39   ', 345.0000,1,   2,   1,   1,1.03488,  -5.2503,1.05000,0.00000,1.05000,0.00000
     4,'BUS_04_39   ', 345.0000,1,   2,   1,   1,1.00738,  -6.3924,1.05000,0.00000,1.05000,0.00000
     5,'BUS_05_39   ', 345.0000,1,   2,   1,   1,1.00644,  -5.4143,1.05000,0.00000,1.05000,0.00000
     6,'BUS_06_39   ', 345.0000,1,   2,   1,   1,1.00855,  -4.6773,1.05000,0.00000,1.05000,0.00000
     7,'BUS_07_39   ', 345.0000,1,   2,   1,   1,0.99754,  -7.1252,1.05000,0.00000,1.05000,0.00000
     8,'BUS_08_39   ', 345.0000,1,   2,   1,   1,0.99646,  -7.7563,1.05000,0.00000,1.05000,0.00000
     9,'BUS_09_39   ', 345.0000,1,   2,   1,   1,1.02763,  -9.6183,1.05000,0.00000,1.05000,0.00000
    10,'BUS_10_39   ', 345.0000,1,   2,   1,   1,1.01903,  -2.0330,1.05000,0.00000,1.05000,0.00000
    11,'BUS_11_39   ', 345.0000,1,   2,   1,   1,1.01424,  -2.9325,1.05000,0.00000,1.05000,0.00000
    12,'BUS_12_39   ', 138.0000,1,   2,   1,   1,1.00235,  -2.9110,1.05000,0.00000,1.05000,0.00000
    13,'BUS_13_39   ', 345.0000,1,   2,   1,   1,1.01705,  -2.7848,1.05000,0.00000,1.05000,0.00000
    14,'BUS_14_39   ', 345.0000,1,   2,   1,   1,1.01679,  -4.5339,1.05000,0.00000,1.05000,0.00000
    15,'BUS_15_39   ', 345.0000,1,   2,   1,   1,1.02813,  -5.1670,1.05000,0.00000,1.05000,0.00000
    16,'BUS_16_39   ', 345.0000,1,   2,   1,   1,1.04747,  -3.8961,1.05000,0.00000,1.05000,0.00000
    17,'BUS_17_39   ', 345.0000,1,   2,   1,   1,1.04520,  -4.8187,1.05000,0.00000,1.05000,0.00000
    18,'BUS_18_39   ', 345.0000,1,   2,   1,   1,1.04002,  -5.4034,1.05000,0.00000,1.05000,0.00000
    19,'BUS_19_39   ', 345.0000,1,   2,   1,   1,1.06130,   0.3109,1.05000,0.00000,1.05000,0.00000
    20,'BUS_20_39   ', 230.0000,1,   2,   1,   1,1.00900,  -1.4852,1.05000,0.00000,1.05000,0.00000
    21,'BUS_21_39   ', 345.0000,1,   2,   1,   1,1.04217,  -1.2894,1.05000,0.00000,1.05000,0.00000
    22,'BUS_22_39   ', 345.0000,1,   2,   1,   1,1.05499,   3.3607,1.05000,0.00000,1.05000,0.00000
    23,'BUS_23_39   ', 345.0000,1,   2,   1,   1,1.05014,   3.1509,1.05000,0.00000,1.05000,0.00000
    24,'BUS_24_39   ', 345.0000,1,   2,   1,   1,1.05137,  -3.7071,1.05000,0.00000,1.05000,0.00000
    25,'BUS_25_39   ', 345.0000,1,   2,   1,   1,1.05644,  -0.8097,1.05000,0.00000,1.05000,0.00000
    26,'BUS_26_39   ', 345.0000,1,   2,   1,   1,1.05830,  -3.7131,1.05000,0.00000,1.05000,0.00000
    27,'BUS_27_39   ', 345.0000,1,   2,   1,   1,1.04668,  -5.3606,1.05000,0.00000,1.05000,0.00000
    28,'BUS_28_39   ', 345.0000,1,   2,   1,   1,1.05609,  -1.9892,1.05000,0.00000,1.05000,0.00000
    29,'BUS_29_39   ', 345.0000,1,   2,   1,   1,1.05478,   0.1839,1.05000,0.00000,1.05000,0.00000
    30,'BUS_30_39   ',  16.5000,1,   2,   1,   1,1.04735,   3.9088,1.05000,0.00000,1.05000,0.00000
    31,'BUS_31_39   ',  16.5000,1,   2,   1,   1,0.98179,   4.6008,1.05000,0.00000,1.05000,0.00000
    32,'BUS_32_39   ',  16.5000,1,   2,   1,   1,0.98289,   6.6031,1.05000,0.00000,1.05000,0.00000
    33,'BUS_33_39   ',  16.5000,1,   2,   1,   1,0.99716,   5.6677,1.05000,0.00000,1.05000,0.00000
    34,'BUS_34_39   ',  16.5000,1,   2,   1,   1,1.01211,  -0.0225,1.05000,0.00000,1.05000,0.00000
    35,'BUS_35_39   ',  16.5000,1,   2,   1,   1,1.04913,   8.5806,1.05000,0.00000,1.05000,0.00000
    36,'BUS_36_39   ',  16.5000,1,   2,   1,   1,1.06342,  11.2507,1.05000,0.00000,1.05000,0.00000
    37,'BUS_37_39   ',  16.5000,1,   2,   1,   1,1.02779,   6.2832,1.05000,0.00000,1.05000,0.00000
    38,'BUS_38_39   ',  16.5000,1,   2,   1,   1,1.02652,   5.9910,1.05000,0.00000,1.05000,0.00000
    39,'BUS_39_39   ', 345.0000,1,   2,   1,   1,1.02986, -10.7836,1.05000,0.00000,1.05000,0.00000
    40,'BUS_G10_39  ',  22.0000,2,   2,   1,   1,1.04750,   3.9392,1.05000,0.00000,1.05000,0.00000
    41,'BUS_G02_39  ',  20.0000,2,   2,   1,   1,0.98200,   4.6368,1.05000,0.00000,1.05000,0.00000
    42,'BUS_G03_39  ',  20.0000,2,   2,   1,   1,0.98310,   6.6448,1.05000,0.00000,1.05000,0.00000
    43,'BUS_G04_39  ',  20.0000,2,   2,   1,   1,0.99720,   5.7052,1.05000,0.00000,1.05000,0.00000
    44,'BUS_G05_39  ',  20.0000,3,   2,   1,   1,1.01230,   0.0000,1.05000,0.00000,1.05000,0.00000
    45,'BUS_G06_39  ',  20.0000,2,   2,   1,   1,1.04930,   8.6163,1.05000,0.00000,1.05000,0.00000
    46,'BUS_G07_39  ',  20.0000,2,   2,   1,   1,1.06350,  11.2801,1.05000,0.00000,1.05000,0.00000
    47,'BUS_G08_39  ',  20.0000,2,   2,   1,   1,1.02780,   6.3138,1.05000,0.00000,1.05000,0.00000
    48,'BUS_G09_39  ',  26.0000,2,   2,   1,   1,1.02650,   6.0283,1.05000,0.00000,1.05000,0.00000
    49,'BUS_G01_39  ',  26.0000,2,   2,   1,   1,1.03000, -10.7393,1.05000,0.00000,1.05000,0.00000
    50,'BUS_0001_14 ', 220.0000,1,   1,   1,   1,1.06000,  39.8846,1.05000,0.00000,1.05000,0.00000
    51,'BUS_0002_14 ', 220.0000,1,   1,   1,   1,1.04499,  37.2918,1.05000,0.00000,1.05000,0.00000
    52,'BUS_0003_14 ', 220.0000,1,   1,   1,   1,1.00997,  29.2881,1.05000,0.00000,1.05000,0.00000
    53,'BUS_0004_14 ', 220.0000,1,   1,   1,   1,1.01545,  31.5081,1.05000,0.00000,1.05000,0.00000
    54,'BUS_0005_14 ', 220.0000,1,   1,   1,   1,1.01744,  32.7281,1.05000,0.00000,1.05000,0.00000
    55,'BUS_0006_14 ', 132.0000,1,   1,   1,   1,1.07000,  26.2865,1.05000,0.00000,1.05000,0.00000
    56,'BUS_0007_14 ', 132.0000,1,   1,   1,   1,1.06526,  25.8619,1.05000,0.00000,1.05000,0.00000
    57,'BUS_0008_14 ', 132.0000,1,   1,   1,   1,1.08999,  25.8619,1.05000,0.00000,1.05000,0.00000
    58,'BUS_0009_14 ', 132.0000,1,   1,   1,   1,1.05858,  24.4075,1.05000,0.00000,1.05000,0.00000
    59,'BUS_0010_14 ', 132.0000,1,   1,   1,   1,1.05292,  24.4509,1.05000,0.00000,1.05000,0.00000
    60,'BUS_0011_14 ', 132.0000,1,   1,   1,   1,1.05761,  25.2268,1.05000,0.00000,1.05000,0.00000
    61,'BUS_0012_14 ', 132.0000,1,   1,   1,   1,1.06363,  25.1749,1.05000,0.00000,1.05000,0.00000
    62,'BUS_0013_14 ', 132.0000,1,   1,   1,   1,1.06512,  24.6592,1.05000,0.00000,1.05000,0.00000
    63,'BUS_0014_14 ', 132.0000,1,   1,   1,   1,1.04354,  23.5345,1.05000,0.00000,1.05000,0.00000
    64,'BUS_G01_14  ',  22.0000,2,   1,   1,   1,1.06000,  39.8965,1.05000,0.00000,1.05000,0.00000
    65,'BUS_G02_14  ',  13.8000,2,   1,   1,   1,1.04500,  37.2939,1.05000,0.00000,1.05000,0.00000
    66,'BUS_G03_14  ',  13.8000,2,   1,   1,   1,1.01000,  29.2881,1.05000,0.00000,1.05000,0.00000
    67,'BUS_G05_14  ',  13.8000,2,   1,   1,   1,1.09000,  25.8619,1.05000,0.00000,1.05000,0.00000
    68,'BUS_G04_14  ',  13.8000,2,   1,   1,   1,1.07000,  26.2865,1.05000,0.00000,1.05000,0.00000
    69,'AC_TERMINAL ', 345.0000,1,   3,   1,   1,1.07128,  -4.8782,1.05000,0.00000,1.05000,0.00000
0 / END OF BUS DATA, BEGIN LOAD DATA
@!   I,'ID',STAT,AREA,ZONE,      PL,        QL,        IP,        IQ,        YP,        YQ, OWNER,SCALE,INTRPT,  DGENP,     DGENQ, DGENF
     1,'1 ',   1,   2,   1,    97.600,    44.200,     0.000,     0.000,     0.000,     0.000,   1,    1,  0,     0.000,     0.000,   0
     3,'1 ',   1,   2,   1,   322.000,     2.400,     0.000,     0.000,     0.000,     0.000,   1,    1,  0,     0.000,     0.000,   0
     4,'1 ',   1,   2,   1,   500.000,   184.000,     0.000,     0.000,     0.000,     0.000,   1,    1,  0,     0.000,     0.000,   0
     7,'1 ',   1,   2,   1,   233.800,    84.000,     0.000,     0.000,     0.000,     0.000,   1,    1,  0,     0.000,     0.000,   0
     8,'1 ',   1,   2,   1,   522.000,   176.000,     0.000,     0.000,     0.000,     0.000,   1,    1,  0,     0.000,     0.000,   0
    12,'1 ',   1,   2,   1,     7.500,    88.000,     0.000,     0.000,     0.000,     0.000,   1,    1,  0,     0.000,     0.000,   0
    15,'1 ',   1,   2,   1,   320.000,   153.000,     0.000,     0.000,     0.000,     0.000,   1,    1,  0,     0.000,     0.000,   0
    16,'1 ',   1,   2,   1,   329.000,    32.300,     0.000,     0.000,     0.000,     0.000,   1,    1,  0,     0.000,     0.000,   0
    18,'1 ',   1,   2,   1,   158.000,    30.000,     0.000,     0.000,     0.000,     0.000,   1,    1,  0,     0.000,     0.000,   0
    20,'1 ',   1,   2,   1,   628.000,   103.000,     0.000,     0.000,     0.000,     0.000,   1,    1,  0,     0.000,     0.000,   0
    21,'1 ',   1,   2,   1,   274.000,   115.000,     0.000,     0.000,     0.000,     0.000,   1,    1,  0,     0.000,     0.000,   0
    23,'1 ',   1,   2,   1,   247.500,    84.600,     0.000,     0.000,     0.000,     0.000,   1,    1,  0,     0.000,     0.000,   0
    24,'1 ',   1,   2,   1,   308.600,   -92.200,     0.000,     0.000,     0.000,     0.000,   1,    1,  0,     0.000,     0.000,   0
    25,'1 ',   1,   2,   1,   224.000,    47.200,     0.000,     0.000,     0.000,     0.000,   1,    1,  0,     0.000,     0.000,   0
    26,'1 ',   1,   2,   1,   139.000,    17.000,     0.000,     0.000,     0.000,     0.000,   1,    1,  0,     0.000,     0.000,   0
    27,'1 ',   1,   2,   1,   281.000,    75.500,     0.000,     0.000,     0.000,     0.000,   1,    1,  0,     0.000,     0.000,   0
    28,'1 ',   1,   2,   1,   206.000,    27.600,     0.000,     0.000,     0.000,     0.000,   1,    1,  0,     0.000,     0.000,   0
    29,'1 ',   1,   2,   1,   283.500,    26.900,     0.000,     0.000,     0.000,     0.000,   1,    1,  0,     0.000,     0.000,   0
    31,'1 ',   1,   2,   1,     9.200,     4.600,     0.000,     0.000,     0.000,     0.000,   1,    1,  0,     0.000,     0.000,   0
    39,'1 ',   1,   2,   1,  1104.000,   250.000,     0.000,     0.000,     0.000,     0.000,   1,    1,  0,     0.000,     0.000,   0
    51,'1 ',   1,   1,   1,    21.700,    12.700,     0.000,     0.000,     0.000,     0.000,   1,    1,  0,     0.000,     0.000,   0
    52,'1 ',   1,   1,   1,    94.200,    19.000,     0.000,     0.000,     0.000,     0.000,   1,    1,  0,     0.000,     0.000,   0
    53,'1 ',   1,   1,   1,    47.800,    -3.900,     0.000,     0.000,     0.000,     0.000,   1,    1,  0,     0.000,     0.000,   0
    54,'1 ',   1,   1,   1,     7.600,     1.600,     0.000,     0.000,     0.000,     0.000,   1,    1,  0,     0.000,     0.000,   0
    55,'1 ',   1,   1,   1,    11.200,     7.500,     0.000,     0.000,     0.000,     0.000,   1,    1,  0,     0.000,     0.000,   0
    58,'1 ',   1,   1,   1,    29.500,    16.600,     0.000,     0.000,     0.000,     0.000,   1,    1,  0,     0.000,     0.000,   0
    59,'1 ',   1,   1,   1,     9.000,     5.800,     0.000,     0.000,     0.000,     0.000,   1,    1,  0,     0.000,     0.000,   0
    60,'1 ',   1,   1,   1,     3.500,     1.800,     0.000,     0.000,     0.000,     0.000,   1,    1,  0,     0.000,     0.000,   0
    61,'1 ',   1,   1,   1,     6.100,     1.600,     0.000,     0.000,     0.000,     0.000,   1,    1,  0,     0.000,     0.000,   0
    62,'1 ',   1,   1,   1,    13.500,     5.800,     0.000,     0.000,     0.000,     0.000,   1,    1,  0,     0.000,     0.000,   0
    62,'2 ',   1,   1,   1,    50.000,    15.000,     0.000,     0.000,     0.000,     0.000,   1,    1,  0,     0.000,     0.000,   0
    63,'1 ',   0,   1,   1,    40.000,     0.000,     0.000,     0.000,     0.000,     0.000,   1,    0,  0,     0.000,     0.000,   0
    63,'2 ',   1,   1,   1,    14.900,     5.000,     0.000,     0.000,     0.000,     0.000,   1,    1,  0,     0.000,     0.000,   0
0 / END OF LOAD DATA, BEGIN FIXED SHUNT DATA
@!   I,'ID',STATUS,  GL,        BL
    58,'1 ',1,     0.000,    18.992
0 / END OF FIXED SHUNT DATA, BEGIN GENERATOR DATA
@!   I,'ID',      PG,        QG,        QT,        QB,     VS,    IREG,     MBASE,     ZR,         ZX,         RT,         XT,     GTAP,STAT, RMPCT,      PT,        PB,    O1,    F1,  O2,    F2,  O3,    F3,  O4,    F4,WMOD, WPF,NREG
    40,'1 ',   583.089,   161.643,   354.000,  -295.000,1.04750,    40,   590.000, 4.60000E-3, 2.15000E-1, 0.00000E+0, 0.00000E+0,1.00000,1,  100.0,   560.500,     0.000,   1,1.0000
    41,'1 ',   606.000,   207.467,   584.500,  -250.500,0.98200,    41,   835.000, 1.90000E-3, 3.39000E-1, 0.00000E+0, 0.00000E+0,1.00000,1,  100.0,   595.000,   150.000,   1,1.0000
    42,'1 ',   702.799,   203.676,   584.500,  -250.500,0.98310,    42,   835.000, 1.90000E-3, 3.39000E-1, 0.00000E+0, 0.00000E+0,1.00000,1,  100.0,   680.000,   200.000,   1,1.0000
    43,'1 ',   652.000,    35.881,   584.500,  -250.500,0.99720,    43,   835.000, 1.90000E-3, 3.39000E-1, 0.00000E+0, 0.00000E+0,1.00000,1,  100.0,   680.000,   200.000,   1,1.0000
    44,'1 ',   402.424,   187.502,  1169.000,  -501.000,1.01230,    44,  1670.000, 1.90000E-3, 3.39000E-1, 0.00000E+0, 0.00000E+0,1.00000,1,  100.0,   510.000,   140.000,   1,1.0000
    45,'1 ',   686.999,   177.567,   584.500,  -250.500,1.04930,    45,   835.000, 1.90000E-3, 3.39000E-1, 0.00000E+0, 0.00000E+0,1.00000,1,  100.0,   680.000,   200.000,   1,1.0000
    46,'1 ',   580.000,    82.511,   584.500,  -250.500,1.06350,    46,   835.000, 1.90000E-3, 3.39000E-1, 0.00000E+0, 0.00000E+0,1.00000,1,  100.0,   595.000,   150.000,   1,1.0000
    47,'1 ',   564.000,     7.900,   584.500,  -250.500,1.02780,    47,   835.000, 1.90000E-3, 3.39000E-1, 0.00000E+0, 0.00000E+0,1.00000,1,  100.0,   595.000,   150.000,   1,1.0000
    48,'1 ',   684.266,   -16.622,   637.700,  -273.300,1.02650,    48,   911.000, 1.00000E-3, 1.93000E-1, 0.00000E+0, 0.00000E+0,1.00000,1,  100.0,   850.000,   250.000,   1,1.0000
    49,'1 ',   821.343,   144.553,   637.700,  -273.300,1.03000,    49,   911.000, 1.00000E-3, 1.93000E-1, 0.00000E+0, 0.00000E+0,1.00000,1,  100.0,   819.900,     0.000,   1,1.0000
    64,'1 ',   232.400,     2.166,   336.000,  -179.200,1.06000,    64,   448.000, 4.30000E-3, 2.05000E-1, 0.00000E+0, 0.00000E+0,1.00000,1,  100.0,   320.000,     0.000,   1,1.0000
    65,'1 ',    40.000,    15.035,    50.000,   -40.000,1.04500,    65,   100.000, 3.50000E-3, 1.45000E-1, 0.00000E+0, 0.00000E+0,1.00000,1,  100.0,    80.000,     0.000,   1,1.0000
    66,'1 ',     0.000,    26.275,    40.000,     0.000,1.01000,    66,    40.000, 0.00000E+0, 2.31000E-1, 0.00000E+0, 0.00000E+0,1.00000,1,  100.0,     0.000,    -1.000,   1,1.0000
    67,'1 ',     0.000,    15.299,    24.000,    -6.000,1.09000,    67,    25.000, 2.50000E-3, 2.03500E-1, 0.00000E+0, 0.00000E+0,1.00000,1,  100.0,     0.000,    -1.000,   1,1.0000
    68,'1 ',     0.000,    -5.053,    24.000,    -6.000,1.07000,    68,    25.000, 2.50000E-3, 2.03500E-1, 0.00000E+0, 0.00000E+0,1.00000,1,  100.0,     0.000,    -1.000,   1,1.0000
0 / END OF GENERATOR DATA, BEGIN BRANCH DATA
@!   I,     J,'CKT',     R,          X,         B,                    'N A M E'                 ,   RATE1,   RATE2,   RATE3,   RATE4,   RATE5,   RATE6,   RATE7,   RATE8,   RATE9,  RATE10,  RATE11,  RATE12,    GI,       BI,       GJ,       BJ,STAT,MET,  LEN,  O1,  F1,    O2,  F2,    O3,  F3,    O4,  F4
     1,     2,'1 ', 3.50000E-3, 4.11000E-2,   0.69870,'                                        ',  600.71,  600.71,  600.71,    0.00,    0.00,    0.00,    0.00,    0.00,    0.00,    0.00,    0.00,    0.00,  0.00000,  0.00000,  0.00000,  0.00000,1,1, 163.06,   1,1.0000
     1,    39,'1 ', 1.00000E-3, 2.50000E-2,   0.75000,'                                        ', 1001.19, 1001.19, 1001.19,    0.00,    0.00,    0.00,    0.00,    0.00,    0.00,    0.00,    0.00,    0.00,  0.00000,  0.00000,  0.00000,  0.00000,1,1,  99.19,   1,1.0000
     2,     3,'1 ', 1.30000E-3, 1.51000E-2,   0.25720,'                                        ',  500.59,  500.59,  500.59,    0.00,    0.00,    0.00,    0.00,    0.00,    0.00,    0.00,    0.00,    0.00,  0.00000,  0.00000,  0.00000,  0.00000,1,1,  59.91,   1,1.0000
     2,    25,'1 ', 7.00000E-3, 8.60000E-3,   0.14600,'                                        ',  500.59,  500.59,  500.59,    0.00,    0.00,    0.00,    0.00,    0.00,    0.00,    0.00,    0.00,    0.00,  0.00000,  0.00000,  0.00000,  0.00000,1,1,  34.12,   1,1.0000
     3,     4,'1 ', 1.30000E-3, 2.13000E-2,   0.22140,'                                        ',  500.59,  500.59,  500.59,    0.00,    0.00,    0.00,    0.00,    0.00,    0.00,    0.00,    0.00,    0.00,  0.00000,  0.00000,  0.00000,  0.00000,1,1,  84.51,   1,1.0000
     3,    18,'1 ', 1.10000E-3, 1.33000E-2,   0.21380,'                                        ',  500.59,  500.59,  500.59,    0.00,    0.00,    0.00,    0.00,    0.00,    0.00,    0.00,    0.00,    0.00,  0.00000,  0.00000,  0.00000,  0.00000,1,1,  52.77,   1,1.0000
     4,     5,'1 ', 8.00000E-4, 1.28000E-2,   0.13420,'                                        ',  600.71,  600.71,  600.71,    0.00,    0.00,    0.00,    0.00,    0.00,    0.00,    0.00,    0.00,    0.00,  0.00000,  0.00000,  0.00000,  0.00000,1,1,  50.78,   1,1.0000
     4,    14,'1 ', 8.00000E-4, 1.29000E-2,   0.13820,'                                        ',  500.59,  500.59,  500.59,    0.00,    0.00,    0.00,    0.00,    0.00,    0.00,    0.00,    0.00,    0.00,  0.00000,  0.00000,  0.00000,  0.00000,1,1,  51.18,   1,1.0000
     5,     6,'1 ', 2.00000E-4, 2.60000E-3,   0.04340,'                                        ', 1201.42, 1201.42, 1201.42,    0.00,    0.00,    0.00,    0.00,    0.00,    0.00,    0.00,    0.00,    0.00,  0.00000,  0.00000,  0.00000,  0.00000,1,1,  10.32,   1,1.0000
     5,     8,'1 ', 8.00000E-4, 1.12000E-2,   0.14760,'                                        ',  901.07,  901.07,  901.07,    0.00,    0.00,    0.00,    0.00,    0.00,    0.00,    0.00,    0.00,    0.00,  0.00000,  0.00000,  0.00000,  0.00000,1,1,  44.44,   1,1.0000
     6,     7,'1 ', 6.00000E-4, 9.20000E-3,   0.11300,'                                        ',  901.07,  901.07,  901.07,    0.00,    0.00,    0.00,    0.00,    0.00,    0.00,    0.00,    0.00,    0.00,  0.00000,  0.00000,  0.00000,  0.00000,1,1,  36.50,   1,1.0000
     6,    11,'1 ', 7.00000E-4, 8.20000E-3,   0.13890,'                                        ',  480.57,  480.57,  480.57,    0.00,    0.00,    0.00,    0.00,    0.00,    0.00,    0.00,    0.00,    0.00,  0.00000,  0.00000,  0.00000,  0.00000,1,1,  32.53,   1,1.0000
     7,     8,'1 ', 4.00000E-4, 4.60000E-3,   0.07800,'                                        ',  901.07,  901.07,  901.07,    0.00,    0.00,    0.00,    0.00,    0.00,    0.00,    0.00,    0.00,    0.00,  0.00000,  0.00000,  0.00000,  0.00000,1,1,  18.25,   1,1.0000
     8,     9,'1 ', 2.30000E-3, 3.63000E-2,   0.38040,'                                        ',  901.07,  901.07,  901.07,    0.00,    0.00,    0.00,    0.00,    0.00,    0.00,    0.00,    0.00,    0.00,  0.00000,  0.00000,  0.00000,  0.00000,1,1, 144.02,   1,1.0000
     9,    39,'1 ', 1.00000E-3, 2.50000E-2,   1.20000,'                                        ',  901.07,  901.07,  901.07,    0.00,    0.00,    0.00,    0.00,    0.00,    0.00,    0.00,    0.00,    0.00,  0.00000,  0.00000,  0.00000,  0.00000,1,1,  99.19,   1,1.0000
    10,    11,'1 ', 4.00000E-4, 4.30000E-3,   0.07290,'                                        ',  600.71,  600.71,  600.71,    0.00,    0.00,    0.00,    0.00,    0.00,    0.00,    0.00,    0.00,    0.00,  0.00000,  0.00000,  0.00000,  0.00000,1,1,  17.06,   1,1.0000
    10,    13,'1 ', 4.00000E-4, 4.30000E-3,   0.07290,'                                        ',  600.71,  600.71,  600.71,    0.00,    0.00,    0.00,    0.00,    0.00,    0.00,    0.00,    0.00,    0.00,  0.00000,  0.00000,  0.00000,  0.00000,1,1,  17.06,   1,1.0000
    13,    14,'1 ', 9.00000E-4, 1.01000E-2,   0.17230,'                                        ',  600.71,  600.71,  600.71,    0.00,    0.00,    0.00,    0.00,    0.00,    0.00,    0.00,    0.00,    0.00,  0.00000,  0.00000,  0.00000,  0.00000,1,1,  40.07,   1,1.0000
    14,    15,'1 ', 1.80000E-3, 2.17000E-2,   0.36600,'                                        ',  600.71,  600.71,  600.71,    0.00,    0.00,    0.00,    0.00,    0.00,    0.00,    0.00,    0.00,    0.00,  0.00000,  0.00000,  0.00000,  0.00000,1,1,  86.09,   1,1.0000
    15,    16,'1 ', 9.00000E-4, 9.40000E-3,   0.17100,'                                        ',  600.71,  600.71,  600.71,    0.00,    0.00,    0.00,    0.00,    0.00,    0.00,    0.00,    0.00,    0.00,  0.00000,  0.00000,  0.00000,  0.00000,1,1,  37.29,   1,1.0000
    16,    17,'1 ', 7.00000E-4, 8.90000E-3,   0.13420,'                                        ',  600.71,  600.71,  600.71,    0.00,    0.00,    0.00,    0.00,    0.00,    0.00,    0.00,    0.00,    0.00,  0.00000,  0.00000,  0.00000,  0.00000,1,1,  35.31,   1,1.0000
    16,    19,'1 ', 1.60000E-3, 1.95000E-2,   0.30400,'                                        ',  600.71,  600.71,  600.71,    0.00,    0.00,    0.00,    0.00,    0.00,    0.00,    0.00,    0.00,    0.00,  0.00000,  0.00000,  0.00000,  0.00000,1,1,  77.37,   1,1.0000
    16,    21,'1 ', 8.00000E-4, 1.35000E-2,   0.25480,'                                        ',  600.71,  600.71,  600.71,    0.00,    0.00,    0.00,    0.00,    0.00,    0.00,    0.00,    0.00,    0.00,  0.00000,  0.00000,  0.00000,  0.00000,1,1,  53.56,   1,1.0000
    16,    24,'1 ', 3.00000E-4, 5.90000E-3,   0.06800,'                                        ',  600.71,  600.71,  600.71,    0.00,    0.00,    0.00,    0.00,    0.00,    0.00,    0.00,    0.00,    0.00,  0.00000,  0.00000,  0.00000,  0.00000,1,1,  23.41,   1,1.0000
    16,    69,'1 ', 1.51229E-3, 3.78072E-2,   1.81475,'                                        ',  902.31,  902.31,  902.31,    0.00,    0.00,    0.00,    0.00,    0.00,    0.00,    0.00,    0.00,    0.00,  0.00000,  0.00000,  0.00000,  0.00000,1,1, 150.00,   1,1.0000
    17,    18,'1 ', 7.00000E-4, 8.20000E-3,   0.13190,'                                        ',  600.71,  600.71,  600.71,    0.00,    0.00,    0.00,    0.00,    0.00,    0.00,    0.00,    0.00,    0.00,  0.00000,  0.00000,  0.00000,  0.00000,1,1,  32.53,   1,1.0000
    17,    27,'1 ', 1.30000E-3, 1.73000E-2,   0.32160,'                                        ',  600.71,  600.71,  600.71,    0.00,    0.00,    0.00,    0.00,    0.00,    0.00,    0.00,    0.00,    0.00,  0.00000,  0.00000,  0.00000,  0.00000,1,1,  68.64,   1,1.0000
    21,    22,'1 ', 8.00000E-4, 1.40000E-2,   0.25650,'                                        ',  901.07,  901.07,  901.07,    0.00,    0.00,    0.00,    0.00,    0.00,    0.00,    0.00,    0.00,    0.00,  0.00000,  0.00000,  0.00000,  0.00000,1,1,  55.54,   1,1.0000
    22,    23,'1 ', 6.00000E-4, 9.60000E-3,   0.18460,'                                        ',  600.71,  600.71,  600.71,    0.00,    0.00,    0.00,    0.00,    0.00,    0.00,    0.00,    0.00,    0.00,  0.00000,  0.00000,  0.00000,  0.00000,1,1,  38.09,   1,1.0000
    23,    24,'1 ', 2.20000E-3, 3.50000E-2,   0.36100,'                                        ',  600.71,  600.71,  600.71,    0.00,    0.00,    0.00,    0.00,    0.00,    0.00,    0.00,    0.00,    0.00,  0.00000,  0.00000,  0.00000,  0.00000,1,1, 138.86,   1,1.0000
    25,    26,'1 ', 3.20000E-3, 3.23000E-2,   0.51300,'                                        ',  600.71,  600.71,  600.71,    0.00,    0.00,    0.00,    0.00,    0.00,    0.00,    0.00,    0.00,    0.00,  0.00000,  0.00000,  0.00000,  0.00000,1,1, 128.15,   1,1.0000
    26,    27,'1 ', 1.40000E-3, 1.47000E-2,   0.23960,'                                        ',  600.71,  600.71,  600.71,    0.00,    0.00,    0.00,    0.00,    0.00,    0.00,    0.00,    0.00,    0.00,  0.00000,  0.00000,  0.00000,  0.00000,1,1,  58.32,   1,1.0000
    26,    28,'1 ', 4.30000E-3, 4.74000E-2,   0.78020,'                                        ',  600.71,  600.71,  600.71,    0.00,    0.00,    0.00,    0.00,    0.00,    0.00,    0.00,    0.00,    0.00,  0.00000,  0.00000,  0.00000,  0.00000,1,1, 188.06,   1,1.0000
    26,    29,'1 ', 5.70000E-3, 6.25000E-2,   1.02900,'                                        ',  600.71,  600.71,  600.71,    0.00,    0.00,    0.00,    0.00,    0.00,    0.00,    0.00,    0.00,    0.00,  0.00000,  0.00000,  0.00000,  0.00000,1,1, 247.97,   1,1.0000
    28,    29,'1 ', 1.40000E-3, 1.51000E-2,   0.24900,'                                        ',  600.71,  600.71,  600.71,    0.00,    0.00,    0.00,    0.00,    0.00,    0.00,    0.00,    0.00,    0.00,  0.00000,  0.00000,  0.00000,  0.00000,1,1,  59.91,   1,1.0000
    50,    51,'1 ', 1.93800E-2, 5.91700E-2,   0.05280,'                                        ',  100.12,  100.12,  100.12,    0.00,    0.00,    0.00,    0.00,    0.00,    0.00,    0.00,    0.00,    0.00,  0.00000,  0.00000,  0.00000,  0.00000,1,1,   1.00,   1,1.0000
    50,    51,'2 ', 1.93800E-2, 5.91700E-2,   0.05280,'                                        ',  100.12,  100.12,  100.12,    0.00,    0.00,    0.00,    0.00,    0.00,    0.00,    0.00,    0.00,    0.00,  0.00000,  0.00000,  0.00000,  0.00000,1,1,   1.00,   1,1.0000
    50,    54,'1 ', 5.40300E-2, 2.23040E-1,   0.04920,'                                        ',  100.12,  100.12,  100.12,    0.00,    0.00,    0.00,    0.00,    0.00,    0.00,    0.00,    0.00,    0.00,  0.00000,  0.00000,  0.00000,  0.00000,1,1,   1.00,   1,1.0000
    51,    52,'1 ', 4.69900E-2, 1.97970E-1,   0.04380,'                                        ',  100.12,  100.12,  100.12,    0.00,    0.00,    0.00,    0.00,    0.00,    0.00,    0.00,    0.00,    0.00,  0.00000,  0.00000,  0.00000,  0.00000,1,1,   1.00,   1,1.0000
    51,    53,'1 ', 5.81100E-2, 1.76320E-1,   0.03400,'                                        ',  100.12,  100.12,  100.12,    0.00,    0.00,    0.00,    0.00,    0.00,    0.00,    0.00,    0.00,    0.00,  0.00000,  0.00000,  0.00000,  0.00000,1,1,   1.00,   1,1.0000
    51,    54,'1 ', 5.69500E-2, 1.73880E-1,   0.03460,'                                        ',  100.12,  100.12,  100.12,    0.00,    0.00,    0.00,    0.00,    0.00,    0.00,    0.00,    0.00,    0.00,  0.00000,  0.00000,  0.00000,  0.00000,1,1,   1.00,   1,1.0000
    52,    53,'1 ', 6.70100E-2, 1.71030E-1,   0.01280,'                                        ',   50.06,   50.06,   50.06,    0.00,    0.00,    0.00,    0.00,    0.00,    0.00,    0.00,    0.00,    0.00,  0.00000,  0.00000,  0.00000,  0.00000,1,1,   1.00,   1,1.0000
    53,    54,'1 ', 1.33500E-2, 4.21100E-2,   0.00000,'                                        ',  100.12,  100.12,  100.12,    0.00,    0.00,    0.00,    0.00,    0.00,    0.00,    0.00,    0.00,    0.00,  0.00000,  0.00000,  0.00000,  0.00000,1,2,   1.00,   1,1.0000
    55,    60,'1 ', 9.49800E-2, 1.98900E-1,   0.00000,'                                        ',   50.06,   50.06,   50.06,    0.00,    0.00,    0.00,    0.00,    0.00,    0.00,    0.00,    0.00,    0.00,  0.00000,  0.00000,  0.00000,  0.00000,1,2,   1.00,   1,1.0000
    55,    61,'1 ', 1.22910E-1, 2.55810E-1,   0.00000,'                                        ',   20.02,   20.02,   20.02,    0.00,    0.00,    0.00,    0.00,    0.00,    0.00,    0.00,    0.00,    0.00,  0.00000,  0.00000,  0.00000,  0.00000,1,1,   1.00,   1,1.0000
    55,    62,'1 ', 6.61500E-2, 1.30270E-1,   0.00000,'                                        ',   50.06,   50.06,   50.06,    0.00,    0.00,    0.00,    0.00,    0.00,    0.00,    0.00,    0.00,    0.00,  0.00000,  0.00000,  0.00000,  0.00000,1,2,   1.00,   1,1.0000
    56,    57,'1 ', 0.00000E+0, 1.76150E-1,   0.00000,'                                        ',   50.06,   50.06,   50.06,    0.00,    0.00,    0.00,    0.00,    0.00,    0.00,    0.00,    0.00,    0.00,  0.00000,  0.00000,  0.00000,  0.00000,1,1,   1.00,   1,1.0000
    56,    58,'1 ', 0.00000E+0, 1.10010E-1,   0.00000,'                                        ',   50.06,   50.06,   50.06,    0.00,    0.00,    0.00,    0.00,    0.00,    0.00,    0.00,    0.00,    0.00,  0.00000,  0.00000,  0.00000,  0.00000,1,1,   1.00,   1,1.0000
    58,    59,'1 ', 3.18100E-2, 8.45000E-2,   0.00000,'                                        ',   20.02,   20.02,   20.02,    0.00,    0.00,    0.00,    0.00,    0.00,    0.00,    0.00,    0.00,    0.00,  0.00000,  0.00000,  0.00000,  0.00000,1,1,   1.00,   1,1.0000
    58,    63,'1 ', 1.27110E-1, 2.70380E-1,   0.00000,'                                        ',   20.02,   20.02,   20.02,    0.00,    0.00,    0.00,    0.00,    0.00,    0.00,    0.00,    0.00,    0.00,  0.00000,  0.00000,  0.00000,  0.00000,1,2,   1.00,   1,1.0000
    59,    60,'1 ', 8.20500E-2, 1.92070E-1,   0.00000,'                                        ',   20.02,   20.02,   20.02,    0.00,    0.00,    0.00,    0.00,    0.00,    0.00,    0.00,    0.00,    0.00,  0.00000,  0.00000,  0.00000,  0.00000,1,1,   1.00,   1,1.0000
    61,    62,'1 ', 2.20920E-1, 1.99880E-1,   0.00000,'                                        ',   20.02,   20.02,   20.02,    0.00,    0.00,    0.00,    0.00,    0.00,    0.00,    0.00,    0.00,    0.00,  0.00000,  0.00000,  0.00000,  0.00000,1,1,   1.00,   1,1.0000
    62,    63,'1 ', 1.70930E-1, 3.48020E-1,   0.00000,'                                        ',   20.02,   20.02,   20.02,    0.00,    0.00,    0.00,    0.00,    0.00,    0.00,    0.00,    0.00,    0.00,  0.00000,  0.00000,  0.00000,  0.00000,1,1,   1.00,   1,1.0000
0 / END OF BRANCH DATA, BEGIN SYSTEM SWITCHING DEVICE DATA
@!   I,     J,'CKT',          X,   RATE1,   RATE2,   RATE3,   RATE4,   RATE5,   RATE6,   RATE7,   RATE8,   RATE9,  RATE10,  RATE11,  RATE12, STAT,NSTAT,  MET,STYPE,'NAME'
0 / END OF SYSTEM SWITCHING DEVICE DATA, BEGIN TRANSFORMER DATA
@!   I,     J,     K,'CKT',CW,CZ,CM,     MAG1,        MAG2,NMETR,               'N A M E',               STAT,O1,  F1,    O2,  F2,    O3,  F3,    O4,  F4,     'VECGRP', ZCOD
@!   R1-2,       X1-2,   SBASE1-2,     R2-3,       X2-3,   SBASE2-3,     R3-1,       X3-1,   SBASE3-1, VMSTAR,   ANSTAR
@!WINDV1,  NOMV1,    ANG1,  RATE1-1,  RATE1-2,  RATE1-3,  RATE1-4,  RATE1-5,  RATE1-6,  RATE1-7,  RATE1-8,  RATE1-9, RATE1-10, RATE1-11, RATE1-12,COD1,CONT1,   RMA1,    RMI1,    VMA1,    VMI1, NTP1,TAB1,  CR1,     CX1,   CNXA1,NOD1
@!WINDV2,  NOMV2,    ANG2,  RATE2-1,  RATE2-2,  RATE2-3,  RATE2-4,  RATE2-5,  RATE2-6,  RATE2-7,  RATE2-8,  RATE2-9, RATE2-10, RATE2-11, RATE2-12,COD2,CONT2,   RMA2,    RMI2,    VMA2,    VMI2, NTP2,TAB2,  CR2,     CX2,   CNXA2,NOD2
@!WINDV3,  NOMV3,    ANG3,  RATE3-1,  RATE3-2,  RATE3-3,  RATE3-4,  RATE3-5,  RATE3-6,  RATE3-7,  RATE3-8,  RATE3-9, RATE3-10, RATE3-11, RATE3-12,COD3,CONT3,   RMA3,    RMI3,    VMA3,    VMI3, NTP3,TAB3,  CR3,     CX3,   CNXA3,NOD3
     2,    30,     0,'1 ', 3, 1, 1, 0.00000E+00, 0.00000E+00,2,'TRF_02_30_39                            ',1,   1,1.0000,   0,1.0000,   0,1.0000,   0,1.0000,'YNy0        '
 0.00000E+0, 1.81000E-2,  1000.00
1.02500, 345.000,   0.000,  1000.00,  1000.00,  1000.00,     0.00,     0.00,     0.00,     0.00,     0.00,     0.00,     0.00,     0.00,     0.00, 0,      0, 1.02500, 0.97500, 1.10000, 0.90000,   3, 0, 0.00000, 0.00000,  0.000,   0
1.00000,  16.500
     6,    31,     0,'1 ', 3, 1, 1, 0.00000E+00, 0.00000E+00,2,'TRF_06_31_39                            ',1,   1,1.0000,   0,1.0000,   0,1.0000,   0,1.0000,'YNy0        '
 0.00000E+0, 2.50000E-2,   700.00
1.07000, 345.000,   0.000,   700.00,   700.00,   700.00,     0.00,     0.00,     0.00,     0.00,     0.00,     0.00,     0.00,     0.00,     0.00, 0,      0, 1.07000, 0.93000, 1.10000, 0.90000,   5, 0, 0.00000, 0.00000,  0.000,   0
1.00000,  16.500
    10,    32,     0,'1 ', 3, 1, 1, 0.00000E+00, 0.00000E+00,2,'TRF_10_32_39                            ',1,   1,1.0000,   0,1.0000,   0,1.0000,   0,1.0000,'YNy0        '
 0.00000E+0, 2.00000E-2,   800.00
1.07000, 345.000,   0.000,   800.00,   800.00,   800.00,     0.00,     0.00,     0.00,     0.00,     0.00,     0.00,     0.00,     0.00,     0.00, 0,      0, 1.07000, 0.93000, 1.10000, 0.90000,   5, 0, 0.00000, 0.00000,  0.000,   0
1.00000,  16.500
    12,    11,     0,'1 ', 3, 1, 1, 0.00000E+00, 0.00000E+00,2,'TRF_11_12_39                            ',1,   1,1.0000,   0,1.0000,   0,1.0000,   0,1.0000,'YNy0        '
 1.60000E-3, 4.35000E-2,   300.00
1.00600, 138.000,   0.000,   300.00,   300.00,   300.00,     0.00,     0.00,     0.00,     0.00,     0.00,     0.00,     0.00,     0.00,     0.00, 0,      0, 1.00600, 0.99400, 1.10000, 0.90000,   3, 0, 0.00000, 0.00000,  0.000,   0
1.00000, 345.000
    12,    13,     0,'1 ', 3, 1, 1, 0.00000E+00, 0.00000E+00,2,'TRF_13_12_39                            ',1,   1,1.0000,   0,1.0000,   0,1.0000,   0,1.0000,'YNy0        '
 1.60000E-3, 4.35000E-2,   300.00
1.00600, 138.000,   0.000,   300.00,   300.00,   300.00,     0.00,     0.00,     0.00,     0.00,     0.00,     0.00,     0.00,     0.00,     0.00, 0,      0, 1.00600, 0.99400, 1.10000, 0.90000,   3, 0, 0.00000, 0.00000,  0.000,   0
1.00000, 345.000
    19,    20,     0,'1 ', 3, 1, 1, 0.00000E+00, 0.00000E+00,2,'TRF_19_20_39                            ',1,   1,1.0000,   0,1.0000,   0,1.0000,   0,1.0000,'YNy0        '
 7.00000E-4, 1.38000E-2,  1000.00
1.06000, 345.000,   0.000,  1000.00,  1000.00,  1000.00,     0.00,     0.00,     0.00,     0.00,     0.00,     0.00,     0.00,     0.00,     0.00, 0,      0, 1.06000, 0.94000, 1.10000, 0.90000,   5, 0, 0.00000, 0.00000,  0.000,   0
1.00000, 230.000
    19,    33,     0,'1 ', 3, 1, 1, 0.00000E+00, 0.00000E+00,2,'TRF_19_33_39                            ',1,   1,1.0000,   0,1.0000,   0,1.0000,   0,1.0000,'YNy0        '
 7.00000E-4, 1.42000E-2,   800.00
1.07000, 345.000,   0.000,   800.00,   800.00,   800.00,     0.00,     0.00,     0.00,     0.00,     0.00,     0.00,     0.00,     0.00,     0.00, 0,      0, 1.07000, 0.93000, 1.10000, 0.90000,   5, 0, 0.00000, 0.00000,  0.000,   0
1.00000,  16.500
    20,    34,     0,'1 ', 3, 1, 1, 0.00000E+00, 0.00000E+00,2,'TRF_20_34_39                            ',1,   1,1.0000,   0,1.0000,   0,1.0000,   0,1.0000,'YNy0        '
 1.16175E-4, 6.47410E-3,  1670.00
1.00900, 230.000,   0.000,  1670.00,  1670.00,  1670.00,     0.00,     0.00,     0.00,     0.00,     0.00,     0.00,     0.00,     0.00,     0.00, 0,      0, 1.00900, 0.99100, 1.10000, 0.90000,   3, 0, 0.00000, 0.00000,  0.000,   0
1.00000,  16.500
    22,    35,     0,'1 ', 3, 1, 1, 0.00000E+00, 0.00000E+00,2,'TRF_22_35_39                            ',1,   1,1.0000,   0,1.0000,   0,1.0000,   0,1.0000,'YNy0        '
 0.00000E+0, 1.43000E-2,   800.00
1.02500, 345.000,   0.000,   800.00,   800.00,   800.00,     0.00,     0.00,     0.00,     0.00,     0.00,     0.00,     0.00,     0.00,     0.00, 0,      0, 1.02500, 0.97500, 1.10000, 0.90000,   3, 0, 0.00000, 0.00000,  0.000,   0
1.00000,  16.500
    23,    36,     0,'1 ', 3, 1, 1, 0.00000E+00, 0.00000E+00,2,'TRF_23_36_39                            ',1,   1,1.0000,   0,1.0000,   0,1.0000,   0,1.0000,'YNy0        '
 5.00000E-4, 2.72000E-2,   700.00
1.00000, 345.000,   0.000,   700.00,   700.00,   700.00,     0.00,     0.00,     0.00,     0.00,     0.00,     0.00,     0.00,     0.00,     0.00, 0,      0, 1.00000, 1.00000, 1.10000, 0.90000,   2, 0, 0.00000, 0.00000,  0.000,   0
1.00000,  16.500
    25,    37,     0,'1 ', 3, 1, 1, 0.00000E+00, 0.00000E+00,2,'TRF_25_37_39                            ',1,   1,1.0000,   0,1.0000,   0,1.0000,   0,1.0000,'YNy0        '
 6.00000E-4, 2.32000E-2,   700.00
1.02500, 345.000,   0.000,   700.00,   700.00,   700.00,     0.00,     0.00,     0.00,     0.00,     0.00,     0.00,     0.00,     0.00,     0.00, 0,      0, 1.02500, 0.97500, 1.10000, 0.90000,   3, 0, 0.00000, 0.00000,  0.000,   0
1.00000,  16.500
    29,    38,     0,'1 ', 3, 1, 1, 0.00000E+00, 0.00000E+00,2,'TRF_29_38_39                            ',1,   1,1.0000,   0,1.0000,   0,1.0000,   0,1.0000,'YNy0        '
 8.00000E-4, 1.56000E-2,  1000.00
1.02500, 345.000,   0.000,  1000.00,  1000.00,  1000.00,     0.00,     0.00,     0.00,     0.00,     0.00,     0.00,     0.00,     0.00,     0.00, 0,      0, 1.02500, 0.97500, 1.10000, 0.90000,   3, 0, 0.00000, 0.00000,  0.000,   0
1.00000,  16.500
    40,    30,     0,'1 ', 3, 1, 1, 0.00000E+00, 0.00000E+00,2,'TRF_G10_39                              ',1,   1,1.0000,   0,1.0000,   0,1.0000,   0,1.0000,'YNyn0       '
 0.00000E+0, 1.00000E-4,  1000.00
1.00000,  22.000,   0.000,  1000.00,  1000.00,  1000.00,     0.00,     0.00,     0.00,     0.00,     0.00,     0.00,     0.00,     0.00,     0.00, 0,      0, 1.00000, 1.00000, 1.10000, 0.90000,   2, 0, 0.00000, 0.00000,  0.000,   0
1.00000,  16.500
    41,    31,     0,'1 ', 3, 1, 1, 0.00000E+00, 0.00000E+00,2,'TRF_G02_39                              ',1,   1,1.0000,   0,1.0000,   0,1.0000,   0,1.0000,'YNyn0       '
 0.00000E+0, 1.00000E-4,   835.00
1.00000,  20.000,   0.000,   835.00,   835.00,   835.00,     0.00,     0.00,     0.00,     0.00,     0.00,     0.00,     0.00,     0.00,     0.00, 0,      0, 1.00000, 1.00000, 1.10000, 0.90000,   2, 0, 0.00000, 0.00000,  0.000,   0
1.00000,  16.500
    42,    32,     0,'1 ', 3, 1, 1, 0.00000E+00, 0.00000E+00,2,'TRF_G03_39                              ',1,   1,1.0000,   0,1.0000,   0,1.0000,   0,1.0000,'YNyn0       '
 0.00000E+0, 1.00000E-4,   835.00
1.00000,  20.000,   0.000,   835.00,   835.00,   835.00,     0.00,     0.00,     0.00,     0.00,     0.00,     0.00,     0.00,     0.00,     0.00, 0,      0, 1.00000, 1.00000, 1.10000, 0.90000,   2, 0, 0.00000, 0.00000,  0.000,   0
1.00000,  16.500
    43,    33,     0,'1 ', 3, 1, 1, 0.00000E+00, 0.00000E+00,2,'TRF_G04_39                              ',1,   1,1.0000,   0,1.0000,   0,1.0000,   0,1.0000,'YNyn0       '
 0.00000E+0, 1.00000E-4,   835.00
1.00000,  20.000,   0.000,   835.00,   835.00,   835.00,     0.00,     0.00,     0.00,     0.00,     0.00,     0.00,     0.00,     0.00,     0.00, 0,      0, 1.00000, 1.00000, 1.10000, 0.90000,   2, 0, 0.00000, 0.00000,  0.000,   0
1.00000,  16.500
    44,    34,     0,'1 ', 3, 1, 1, 0.00000E+00, 0.00000E+00,2,'TRF_G05_39                              ',1,   1,1.0000,   0,1.0000,   0,1.0000,   0,1.0000,'YNyn0       '
 0.00000E+0, 1.00000E-4,   835.00
1.00000,  20.000,   0.000,   835.00,   835.00,   835.00,     0.00,     0.00,     0.00,     0.00,     0.00,     0.00,     0.00,     0.00,     0.00, 0,      0, 1.00000, 1.00000, 1.10000, 0.90000,   2, 0, 0.00000, 0.00000,  0.000,   0
1.00000,  16.500
    45,    35,     0,'1 ', 3, 1, 1, 0.00000E+00, 0.00000E+00,2,'TRF_G06_39                              ',1,   1,1.0000,   0,1.0000,   0,1.0000,   0,1.0000,'YNyn0       '
 0.00000E+0, 1.00000E-4,   835.00
1.00000,  20.000,   0.000,   835.00,   835.00,   835.00,     0.00,     0.00,     0.00,     0.00,     0.00,     0.00,     0.00,     0.00,     0.00, 0,      0, 1.00000, 1.00000, 1.10000, 0.90000,   2, 0, 0.00000, 0.00000,  0.000,   0
1.00000,  16.500
    46,    36,     0,'1 ', 3, 1, 1, 0.00000E+00, 0.00000E+00,2,'TRF_G07_39                              ',1,   1,1.0000,   0,1.0000,   0,1.0000,   0,1.0000,'YNyn0       '
 0.00000E+0, 1.00000E-4,   835.00
1.00000,  20.000,   0.000,   835.00,   835.00,   835.00,     0.00,     0.00,     0.00,     0.00,     0.00,     0.00,     0.00,     0.00,     0.00, 0,      0, 1.00000, 1.00000, 1.10000, 0.90000,   2, 0, 0.00000, 0.00000,  0.000,   0
1.00000,  16.500
    47,    37,     0,'1 ', 3, 1, 1, 0.00000E+00, 0.00000E+00,2,'TRF_G08_39                              ',1,   1,1.0000,   0,1.0000,   0,1.0000,   0,1.0000,'YNyn0       '
 0.00000E+0, 1.00000E-4,   835.00
1.00000,  20.000,   0.000,   835.00,   835.00,   835.00,     0.00,     0.00,     0.00,     0.00,     0.00,     0.00,     0.00,     0.00,     0.00, 0,      0, 1.00000, 1.00000, 1.10000, 0.90000,   2, 0, 0.00000, 0.00000,  0.000,   0
1.00000,  16.500
    48,    38,     0,'1 ', 3, 1, 1, 0.00000E+00, 0.00000E+00,2,'TRF_G09_39                              ',1,   1,1.0000,   0,1.0000,   0,1.0000,   0,1.0000,'YNyn0       '
 0.00000E+0, 1.00000E-4,   911.00
1.00000,  26.000,   0.000,   911.00,   911.00,   911.00,     0.00,     0.00,     0.00,     0.00,     0.00,     0.00,     0.00,     0.00,     0.00, 0,      0, 1.00000, 1.00000, 1.10000, 0.90000,   2, 0, 0.00000, 0.00000,  0.000,   0
1.00000,  16.500
    39,    49,     0,'1 ', 3, 1, 1, 0.00000E+00, 0.00000E+00,2,'TRF_G01_39                              ',1,   1,1.0000,   0,1.0000,   0,1.0000,   0,1.0000,'YNyn0       '
 0.00000E+0, 1.00000E-4,  1100.00
1.00000, 345.000,   0.000,  1100.00,  1100.00,  1100.00,     0.00,     0.00,     0.00,     0.00,     0.00,     0.00,     0.00,     0.00,     0.00, 0,      0, 1.00000, 1.00000, 1.10000, 0.90000,   2, 0, 0.00000, 0.00000,  0.000,   0
1.00000,  26.000
    50,    64,     0,'1 ', 3, 1, 1, 0.00000E+00, 0.00000E+00,2,'TRF_G0_14                               ',1,   1,1.0000,   0,1.0000,   0,1.0000,   0,1.0000,'YNyn0       '
 0.00000E+0, 1.00000E-4,   450.00
1.00000, 220.000,   0.000,   450.00,   450.00,   450.00,     0.00,     0.00,     0.00,     0.00,     0.00,     0.00,     0.00,     0.00,     0.00, 0,      0, 1.00000, 1.00000, 1.10000, 0.90000,   2, 0, 0.00000, 0.00000,  0.000,   0
1.00000,  22.000
    51,    65,     0,'1 ', 3, 1, 1, 0.00000E+00, 0.00000E+00,2,'TRF_G02_14                              ',1,   1,1.0000,   0,1.0000,   0,1.0000,   0,1.0000,'YNyn0       '
 0.00000E+0, 1.00000E-4,   100.00
1.00000, 220.000,   0.000,   100.00,   100.00,   100.00,     0.00,     0.00,     0.00,     0.00,     0.00,     0.00,     0.00,     0.00,     0.00, 0,      0, 1.00000, 1.00000, 1.10000, 0.90000,   2, 0, 0.00000, 0.00000,  0.000,   0
1.00000,  13.800
    52,    66,     0,'1 ', 3, 1, 1, 0.00000E+00, 0.00000E+00,2,'TRF_G03_14                              ',1,   1,1.0000,   0,1.0000,   0,1.0000,   0,1.0000,'YNyn0       '
 0.00000E+0, 1.00000E-4,    40.00
1.00000, 220.000,   0.000,    40.00,    40.00,    40.00,     0.00,     0.00,     0.00,     0.00,     0.00,     0.00,     0.00,     0.00,     0.00, 0,      0, 1.00000, 1.00000, 1.10000, 0.90000,   2, 0, 0.00000, 0.00000,  0.000,   0
1.00000,  13.800
    53,    56,     0,'1 ', 3, 1, 1, 0.00000E+00, 0.00000E+00,2,'TRF_04_07_14                            ',1,   1,1.0000,   0,1.0000,   0,1.0000,   0,1.0000,'YNyn0       '
 0.00000E+0, 4.18240E-1,    50.00
0.97800, 220.000,   0.000,    50.00,    50.00,    50.00,     0.00,     0.00,     0.00,     0.00,     0.00,     0.00,     0.00,     0.00,     0.00, 0,      0, 1.02200, 0.97800, 1.10000, 0.90000,   3, 0, 0.00000, 0.00000,  0.000,   0
1.00000, 132.000
    53,    58,     0,'1 ', 3, 1, 1, 0.00000E+00, 0.00000E+00,2,'TRF_04_09_14                            ',1,   1,1.0000,   0,1.0000,   0,1.0000,   0,1.0000,'YNyn0       '
 0.00000E+0, 1.11236E+0,    50.00
0.96900, 220.000,   0.000,    50.00,    50.00,    50.00,     0.00,     0.00,     0.00,     0.00,     0.00,     0.00,     0.00,     0.00,     0.00, 0,      0, 1.03100, 0.96900, 1.10000, 0.90000,   3, 0, 0.00000, 0.00000,  0.000,   0
1.00000, 132.000
    54,    55,     0,'1 ', 3, 1, 1, 0.00000E+00, 0.00000E+00,2,'TRF_05_06_14                            ',1,   1,1.0000,   0,1.0000,   0,1.0000,   0,1.0000,'YNyn0       '
 0.00000E+0, 2.52020E-1,   100.00
0.93200, 220.000,   0.000,   100.00,   100.00,   100.00,     0.00,     0.00,     0.00,     0.00,     0.00,     0.00,     0.00,     0.00,     0.00, 0,      0, 1.06800, 0.93200, 1.10000, 0.90000,   3, 0, 0.00000, 0.00000,  0.000,   0
1.00000, 132.000
    55,    68,     0,'1 ', 3, 1, 1, 0.00000E+00, 0.00000E+00,2,'TRF_G05_14                              ',1,   1,1.0000,   0,1.0000,   0,1.0000,   0,1.0000,'YNyn0       '
 0.00000E+0, 1.00000E-4,    25.00
1.00000, 132.000,   0.000,    25.00,    25.00,    25.00,     0.00,     0.00,     0.00,     0.00,     0.00,     0.00,     0.00,     0.00,     0.00, 0,      0, 1.00000, 1.00000, 1.10000, 0.90000,   2, 0, 0.00000, 0.00000,  0.000,   0
1.00000,  13.800
    57,    67,     0,'1 ', 3, 1, 1, 0.00000E+00, 0.00000E+00,2,'TRF_G04_14                              ',1,   1,1.0000,   0,1.0000,   0,1.0000,   0,1.0000,'YNyn0       '
 0.00000E+0, 1.00000E-4,    25.00
1.00000, 132.000,   0.000,    25.00,    25.00,    25.00,     0.00,     0.00,     0.00,     0.00,     0.00,     0.00,     0.00,     0.00,     0.00, 0,      0, 1.00000, 1.00000, 1.10000, 0.90000,   2, 0, 0.00000, 0.00000,  0.000,   0
1.00000,  13.800
    69,    62,     0,'1 ', 3, 1, 1, 0.00000E+00, 0.00000E+00,1,'TRF_AC_LINL                             ',1,   1,1.0000,   0,1.0000,   0,1.0000,   0,1.0000,'YNd11       '
 9.24556E-5, 1.92305E-2,   520.00
1.00000, 345.000, -30.000,   520.00,   520.00,   520.00,     0.00,     0.00,     0.00,     0.00,     0.00,     0.00,     0.00,     0.00,     0.00, 0,      0, 1.05000, 0.95000, 1.10000, 0.90000,  11, 0, 0.00000, 0.00000,  0.000,   0
1.00000, 132.000
0 / END OF TRANSFORMER DATA, BEGIN AREA DATA
@! I,   ISW,     PDES,      PTOL,    'ARNAME'
   1,     0,     0.000,    10.000,'GRID_14BUS  '
   2,     0,     0.000,    10.000,'GRID_39BUS  '
   3,     0,     0.000,    10.000,'LINK_AC     '
0 / END OF AREA DATA, BEGIN TWO-TERMINAL DC DATA
@!  'NAME',   MDC,     RDC,      SETVL,     VSCHD,     VCMOD,     RCOMP,    DELTI,METER    DCVMIN,CCCITMX, CCCACC
@! IPR,NBR,ANMXR,ANMNR,   RCR,    XCR,  EBASR,  TRR,    TAPR,   TMXR,   TMNR,   STPR,    ICR,   IFR,   ITR,'IDR', XCAPR,NDR
@! IPI,NBI,ANMXI,ANMNI,   RCI,    XCI,  EBASI,  TRI,    TAPI,   TMXI,   TMNI,   STPI,    ICI,   IFI,   ITI,'IDI', XCAPI,NDI
0 / END OF TWO-TERMINAL DC DATA, BEGIN VSC DC LINE DATA
@!  'NAME',   MDC,     RDC,   O1,  F1,    O2,  F2,    O3,  F3,    O4,  F4
@!IBUS,TYPE,MODE,     DCSET,   ACSET,     ALOSS,     BLOSS,   MINLOSS,     SMAX,      IMAX,   PWF,        MAXQ,      MINQ, VSREG,  RMPCT,NREG
0 / END OF VSC DC LINE DATA, BEGIN IMPEDANCE CORRECTION DATA
@!I,   T1,    Re(F1),  Im(F1),    T2,    Re(F2),  Im(F2),    T3,    Re(F3),  Im(F3),    T4,    Re(F4),  Im(F4),    T5,    Re(F5),  Im(F5),    T6,    Re(F6),  Im(F6)
@!     T7,    Re(F7),  Im(F7),    T8,    Re(F8),  Im(F8),    T9,    Re(F9),  Im(F9),    T10,  Re(F10), Im(F10),    T11,  Re(F11), Im(F11),    T12,  Re(F12), Im(F12)
@!      ...
0 / END OF IMPEDANCE CORRECTION DATA, BEGIN MULTI-TERMINAL DC DATA
@!  'NAME',    NCONV,NDCBS,NDCLN,  MDC, VCONV,     VCMOD, VCONVN
@!  IB, N,ANGMX,ANGMN,    RC,      XC,    EBAS,   TR,    TAP,    TPMX,   TPMN,   TSTP,     SETVL,   DCPF,    MARG,CNVCOD
@!IDC, IB,AREA,ZONE,   'DCNAME',  IDC2,   RGRND,OWNER
@!IDC,JDC,'DCCKT',MET,   RDC,        LDC
0 / END OF MULTI-TERMINAL DC DATA, BEGIN MULTI-SECTION LINE DATA
@!   I,     J,'ID',MET,DUM1,  DUM2,  DUM3,  DUM4,  DUM5,  DUM6,  DUM7,  DUM8,  DUM9
0 / END OF MULTI-SECTION LINE DATA, BEGIN ZONE DATA
@! I,   'ZONAME'
   1,'ZONE 1      '
0 / END OF ZONE DATA, BEGIN INTER-AREA TRANSFER DATA
@!ARFROM,ARTO,'TRID', PTRAN
0 / END OF INTER-AREA TRANSFER DATA, BEGIN OWNER DATA
@! I,   'OWNAME'
   1,'OWNER 1     '
0 / END OF OWNER DATA, BEGIN FACTS DEVICE DATA
@!  'NAME',         I,     J,MODE,   PDES,      QDES,  VSET,      SHMX,      TRMX,   VTMN,   VTMX,   VSMX,      IMX,     LINX,   RMPCT,OWNER,    SET1,      SET2,VSREF, FCREG,   'MNAME'    ,NREG
0 / END OF FACTS DEVICE DATA, BEGIN SWITCHED SHUNT DATA
@!  I,MODSW,ADJM,ST, VSWHI,  VSWLO, SWREG,  RMPCT,   'RMIDNT',      BINIT,N1,     B1, N2,     B2, N3,     B3, N4,     B4, N5,     B5, N6,     B6, N7,     B7, N8,     B8, NREG
0 / END OF SWITCHED SHUNT DATA, BEGIN GNE DATA
@!  'NAME',        'MODEL',     NTERM,BUS1...BUSNTERM,NREAL,NINTG,NCHAR
@!ST,OWNER,NMETR
@! REAL1...REAL(MIN(10,NREAL))
@! INTG1...INTG(MIN(10,NINTG))
@! CHAR1...CHAR(MIN(10,NCHAR))
0 / END OF GNE DATA, BEGIN INDUCTION MACHINE DATA
@!   I,'ID',ST,SC,DC,AREA,ZONE,OWNER,TC,BC,  MBASE, RATEKV,PC,  PSET,      H,       A,       B,       D,       E,     RA,        XA,        XM,        R1,        X1,        R2,        X2,        X3,       E1,    SE1,   E2,    SE2,   IA1,   IA2, XAMULT
0 / END OF INDUCTION MACHINE DATA, BEGIN SUBSTATION DATA
0 / END OF SUBSTATION DATA
Q
